VERS 161019 507 33785
MODE SEQ
NAME GB 2,566,584 Example 2 (Canon RF28-70mm F2 L USM)
NOTE 0 Prepared and converted by Bill Claff. See:
NOTE 4
NOTE 0 https://www.PhotonsToPhotos.net/Lenses/OpticalBench/OpticalBench.htm#/Data/GB2566584_Example02P.txt
PFIL 0 0 0
LANG 0
UNIT MM X W X CM MR CPMM
FLOA
ENVD 20 1 0
GFAC 0 0
RAIM 0 2 1 1 0 1 0 0 0
SDMA 0 1 0
FTYP 3 0 3 3 0 0 0
ROPD 2
HYPR 0
PICB 1
XFLN 0 0 0 0 0 0 0 0 0 0 0 0
YFLN 0 15.148 21.64 0 0 0 0 0 0 0 0 0 0
FWGN 1 1 1 1 1 1 1 1 1 1 1 1
VDXN 0 0 0 0 0 0 0 0 0 0 0 0
VDYN 0 0 0 0 0 0 0 0 0 0 0 0
VCXN 0 0 0 0 0 0 0 0 0 0 0 0
VCYN 0 0 0 0 0 0 0 0 0 0 0 0
VANN 0 0 0 0 0 0 0 0 0 0 0 0
WAVM 1 0.4861327 1
WAVM 2 0.5875618 1
WAVM 3 0.6562725 1
WAVM 4 0.550 1
WAVM 5 0.550 1
WAVM 6 0.550 1
WAVM 7 0.550 1
WAVM 8 0.550 1
WAVM 9 0.550 1
WAVM 10 0.550 1
WAVM 11 0.550 1
WAVM 12 0.550 1
WAVM 13 0.550 1
WAVM 14 0.550 1
WAVM 15 0.550 1
WAVM 16 0.550 1
WAVM 17 0.550 1
WAVM 18 0.550 1
WAVM 19 0.550 1
WAVM 20 0.550 1
WAVM 21 0.550 1
WAVM 22 0.550 1
WAVM 23 0.550 1
WAVM 24 0.550 1
PWAV 2
POLS 1 0 1 0 0 1 0
GSTD 0 100 100 100 100 100 100 0 1 1 0 0 1 1 1 1 1 1
NSCD 100 500 0 1.0E-3 5 1.0E-6 0 0 0 0 0 0 1000000 0 2
SURF 0
  TYPE STANDARD
  CURV 0.0 0 0 0 0 ""
  HIDE 0 0 0 0 0 0 0 0 0 0
  MIRR 2 0
  DISZ INFINITY
  DIAM 0 1 0 0 1 ""
  POPS 0 0 0 0 0 0 0 0 1 1 1 1 0 0 0 0
SURF 1
  TYPE STANDARD
  CURV 0.00670929304179219 0 0 0 0
  HIDE 0 0 0 0 0 0 0 0 0 0
  MIRR 2 0
  DISZ  2.1
  GLAS  ___BLANK 1 0 1.80810 22.8 0 0 0 0 0 0
  DIAM  39.46 1 0 0 1 ""
  POPS 0 0 0 0 0 0 0 0 1 1 1 1 0 0 0 0
SURF 2
  TYPE STANDARD
  CURV 0.0145388988238031 0 0 0 0
  HIDE 0 0 0 0 0 0 0 0 0 0
  MIRR 2 0
  DISZ  8.93
  GLAS  ___BLANK 1 0 1.72916 54.7 0 0 0 0 0 0
  DIAM  36.99 1 0 0 1 ""
  POPS 0 0 0 0 0 0 0 0 1 1 1 1 0 0 0 0
SURF 3
  TYPE STANDARD
  CURV 0.00447075233820347 0 0 0 0
  HIDE 0 0 0 0 0 0 0 0 0 0
  MIRR 2 0
  DISZ  0.15
  DIAM  39.72 1 0 0 1 ""
  POPS 0 0 0 0 0 0 0 0 1 1 1 1 0 0 0 0
SURF 4
  TYPE STANDARD
  CURV 0.0169548999660902 0 0 0 0
  HIDE 0 0 0 0 0 0 0 0 0 0
  MIRR 2 0
  DISZ  8.28
  GLAS  ___BLANK 1 0 1.77250 49.6 0 0 0 0 0 0
  DIAM  33.83 1 0 0 1 ""
  POPS 0 0 0 0 0 0 0 0 1 1 1 1 0 0 0 0
SURF 5
  TYPE STANDARD
  CURV 0.00626342722210739 0 0 0 0
  HIDE 0 0 0 0 0 0 0 0 0 0
  MIRR 2 0
  DISZ  3.86
  DIAM  34 1 0 0 1 ""
  POPS 0 0 0 0 0 0 0 0 1 1 1 1 0 0 0 0
SURF 6
  TYPE EVENASPH
  CURV 0.00566575448019536 0 0 0 0
  HIDE 0 0 0 0 0 0 0 0 0 0
  MIRR 2 0
  PARM 1 0
  PARM 2 4.40628E-06
  PARM 3 -2.80374E-09
  PARM 4 3.12113E-12
  PARM 5 2.43107E-15
  PARM 6 -2.17038E-18
  PARM 7 0
  PARM 8 0
  DISZ  1.5
  CONI  0
  GLAS  ___BLANK 1 0 1.76902 49.3 0 0 0 0 0 0
  DIAM  21.03 1 0 0 1 ""
  POPS 0 0 0 0 0 0 0 0 1 1 1 1 0 0 0 0
SURF 7
  TYPE STANDARD
  CURV 0.0494853523357086 0 0 0 0
  HIDE 0 0 0 0 0 0 0 0 0 0
  MIRR 2 0
  DISZ  9.19
  DIAM  15.23 1 0 0 1 ""
  POPS 0 0 0 0 0 0 0 0 1 1 1 1 0 0 0 0
SURF 8
  TYPE STANDARD
  CURV -0.0157482795004646 0 0 0 0
  HIDE 0 0 0 0 0 0 0 0 0 0
  MIRR 2 0
  DISZ  0.9
  GLAS  ___BLANK 1 0 1.76385 48.5 0 0 0 0 0 0
  DIAM  15.23 1 0 0 1 ""
  POPS 0 0 0 0 0 0 0 0 1 1 1 1 0 0 0 0
SURF 9
  TYPE STANDARD
  CURV 0.0403355921264924 0 0 0 0
  HIDE 0 0 0 0 0 0 0 0 0 0
  MIRR 2 0
  DISZ  8.37
  GLAS  ___BLANK 1 0 1.85478 24.8 0 0 0 0 0 0
  DIAM  14.04 1 0 0 1 ""
  POPS 0 0 0 0 0 0 0 0 1 1 1 1 0 0 0 0
SURF 10
  TYPE STANDARD
  CURV -0.0179872290673622 0 0 0 0
  HIDE 0 0 0 0 0 0 0 0 0 0
  MIRR 2 0
  DISZ  1.57
  DIAM  15.4 1 0 0 1 ""
  POPS 0 0 0 0 0 0 0 0 1 1 1 1 0 0 0 0
SURF 11
  TYPE STANDARD
  CURV -0.0238646397632628 0 0 0 0
  HIDE 0 0 0 0 0 0 0 0 0 0
  MIRR 2 0
  DISZ  5.18
  GLAS  ___BLANK 1 0 1.48749 70.2 0 0 0 0 0 0
  DIAM  13.86 1 0 0 1 ""
  POPS 0 0 0 0 0 0 0 0 1 1 1 1 0 0 0 0
SURF 12
  TYPE STANDARD
  CURV -0.0510360314381954 0 0 0 0
  HIDE 0 0 0 0 0 0 0 0 0 0
  MIRR 2 0
  DISZ  1.2
  GLAS  ___BLANK 1 0 1.88300 40.8 0 0 0 0 0 0
  DIAM  14.21 1 0 0 1 ""
  POPS 0 0 0 0 0 0 0 0 1 1 1 1 0 0 0 0
SURF 13
  TYPE EVENASPH
  CURV -0.0133472144363471 0 0 0 0
  HIDE 0 0 0 0 0 0 0 0 0 0
  MIRR 2 0
  PARM 1 0
  PARM 2 -2.36140E-06
  PARM 3 -1.08356E-09
  PARM 4 -1.99552E-11
  PARM 5 1.00829E-13
  PARM 6 -1.77388E-16
  PARM 7 0
  PARM 8 0
  DISZ  14.92
  CONI  0
  DIAM  15.32 1 0 0 1 ""
  POPS 0 0 0 0 0 0 0 0 1 1 1 1 0 0 0 0
SURF 14
  STOP
  TYPE STANDARD
  CURV 0 0 0 0 0
  HIDE 0 0 0 0 0 0 0 0 0 0
  MIRR 2 0
  DISZ  0.3
  DIAM  13.174 1 0 0 1 ""
  POPS 0 0 0 0 0 0 0 0 1 1 1 1 0 0 0 0
SURF 15
  TYPE STANDARD
  CURV 0.0155204792723999 0 0 0 0
  HIDE 0 0 0 0 0 0 0 0 0 0
  MIRR 2 0
  DISZ  4.46
  GLAS  ___BLANK 1 0 1.72916 54.7 0 0 0 0 0 0
  DIAM  17.79 1 0 0 1 ""
  POPS 0 0 0 0 0 0 0 0 1 1 1 1 0 0 0 0
SURF 16
  TYPE STANDARD
  CURV 0 0 0 0 0
  HIDE 0 0 0 0 0 0 0 0 0 0
  MIRR 2 0
  DISZ  0.15
  DIAM  17.79 1 0 0 1 ""
  POPS 0 0 0 0 0 0 0 0 1 1 1 1 0 0 0 0
SURF 17
  TYPE STANDARD
  CURV 0.0246026669290951 0 0 0 0
  HIDE 0 0 0 0 0 0 0 0 0 0
  MIRR 2 0
  DISZ  8.99
  GLAS  ___BLANK 1 0 1.80400 46.6 0 0 0 0 0 0
  DIAM  18.39 1 0 0 1 ""
  POPS 0 0 0 0 0 0 0 0 1 1 1 1 0 0 0 0
SURF 18
  TYPE EVENASPH
  CURV -0.0113430127041742 0 0 0 0
  HIDE 0 0 0 0 0 0 0 0 0 0
  MIRR 2 0
  PARM 1 0
  PARM 2 2.15576E-06
  PARM 3 -2.33619E-09
  PARM 4 -1.82040E-12
  PARM 5 -1.99976E-16
  PARM 6 4.53234E-18
  PARM 7 0
  PARM 8 0
  DISZ  4.14
  CONI  0
  DIAM  18.39 1 0 0 1 ""
  POPS 0 0 0 0 0 0 0 0 1 1 1 1 0 0 0 0
SURF 19
  TYPE STANDARD
  CURV -0.0209292591042277 0 0 0 0
  HIDE 0 0 0 0 0 0 0 0 0 0
  MIRR 2 0
  DISZ  1.5
  GLAS  ___BLANK 1 0 1.73800 32.3 0 0 0 0 0 0
  DIAM  16.77 1 0 0 1 ""
  POPS 0 0 0 0 0 0 0 0 1 1 1 1 0 0 0 0
SURF 20
  TYPE STANDARD
  CURV 0.0399744163735209 0 0 0 0
  HIDE 0 0 0 0 0 0 0 0 0 0
  MIRR 2 0
  DISZ  7.71
  GLAS  ___BLANK 1 0 1.49700 81.5 0 0 0 0 0 0
  DIAM  16.77 1 0 0 1 ""
  POPS 0 0 0 0 0 0 0 0 1 1 1 1 0 0 0 0
SURF 21
  TYPE STANDARD
  CURV 0.00402479272317476 0 0 0 0
  HIDE 0 0 0 0 0 0 0 0 0 0
  MIRR 2 0
  DISZ  5.66
  DIAM  16.77 1 0 0 1 ""
  POPS 0 0 0 0 0 0 0 0 1 1 1 1 0 0 0 0
SURF 22
  TYPE STANDARD
  CURV 0.0302315738557349 0 0 0 0
  HIDE 0 0 0 0 0 0 0 0 0 0
  MIRR 2 0
  DISZ  6.71
  GLAS  ___BLANK 1 0 1.43875 94.7 0 0 0 0 0 0
  DIAM  16.54 1 0 0 1 ""
  POPS 0 0 0 0 0 0 0 0 1 1 1 1 0 0 0 0
SURF 23
  TYPE STANDARD
  CURV -0.00213061523645568 0 0 0 0
  HIDE 0 0 0 0 0 0 0 0 0 0
  MIRR 2 0
  DISZ  0.15
  DIAM  16.54 1 0 0 1 ""
  POPS 0 0 0 0 0 0 0 0 1 1 1 1 0 0 0 0
SURF 24
  TYPE STANDARD
  CURV 0.0248422517016942 0 0 0 0
  HIDE 0 0 0 0 0 0 0 0 0 0
  MIRR 2 0
  DISZ  6.46
  GLAS  ___BLANK 1 0 1.59522 67.7 0 0 0 0 0 0
  DIAM  16.48 1 0 0 1 ""
  POPS 0 0 0 0 0 0 0 0 1 1 1 1 0 0 0 0
SURF 25
  TYPE STANDARD
  CURV -0.00982839620230771 0 0 0 0
  HIDE 0 0 0 0 0 0 0 0 0 0
  MIRR 2 0
  DISZ  0.3
  DIAM  16.48 1 0 0 1 ""
  POPS 0 0 0 0 0 0 0 0 1 1 1 1 0 0 0 0
SURF 26
  TYPE STANDARD
  CURV 0.0167993817827504 0 0 0 0
  HIDE 0 0 0 0 0 0 0 0 0 0
  MIRR 2 0
  DISZ  4.51
  GLAS  ___BLANK 1 0 1.49700 81.5 0 0 0 0 0 0
  DIAM  15.59 1 0 0 1 ""
  POPS 0 0 0 0 0 0 0 0 1 1 1 1 0 0 0 0
SURF 27
  TYPE STANDARD
  CURV -0.00561936658499854 0 0 0 0
  HIDE 0 0 0 0 0 0 0 0 0 0
  MIRR 2 0
  DISZ  1
  GLAS  ___BLANK 1 0 1.80610 33.3 0 0 0 0 0 0
  DIAM  15.59 1 0 0 1 ""
  POPS 0 0 0 0 0 0 0 0 1 1 1 1 0 0 0 0
SURF 28
  TYPE STANDARD
  CURV 0.022686540075773 0 0 0 0
  HIDE 0 0 0 0 0 0 0 0 0 0
  MIRR 2 0
  DISZ  4.23
  DIAM  14.45 1 0 0 1 ""
  POPS 0 0 0 0 0 0 0 0 1 1 1 1 0 0 0 0
SURF 29
  TYPE EVENASPH
  CURV -0.001 0 0 0 0
  HIDE 0 0 0 0 0 0 0 0 0 0
  MIRR 2 0
  PARM 1 0
  PARM 2 -4.82313E-05
  PARM 3 1.54634E-08
  PARM 4 3.00393E-10
  PARM 5 -1.04531E-12
  PARM 6 1.51938E-15
  PARM 7 0
  PARM 8 0
  DISZ  3
  CONI  0
  GLAS  ___BLANK 1 0 1.85400 40.4 0 0 0 0 0 0
  DIAM  14.45 1 0 0 1 ""
  POPS 0 0 0 0 0 0 0 0 1 1 1 1 0 0 0 0
SURF 30
  TYPE EVENASPH
  CURV 0.00915935444869846 0 0 0 0
  HIDE 0 0 0 0 0 0 0 0 0 0
  MIRR 2 0
  PARM 1 0
  PARM 2 -2.82244E-05
  PARM 3 5.87972E-08
  PARM 4 2.35247E-10
  PARM 5 -8.07024E-13
  PARM 6 9.56680E-16
  PARM 7 0
  PARM 8 0
  DISZ  3.26
  CONI  0
  DIAM  14.77 1 0 0 1 ""
  POPS 0 0 0 0 0 0 0 0 1 1 1 1 0 0 0 0
SURF 31
  TYPE STANDARD
  CURV -0.0221248727819815 0 0 0 0
  HIDE 0 0 0 0 0 0 0 0 0 0
  MIRR 2 0
  DISZ  1.2
  GLAS  ___BLANK 1 0 1.48749 70.2 0 0 0 0 0 0
  DIAM  14.77 1 0 0 1 ""
  POPS 0 0 0 0 0 0 0 0 1 1 1 1 0 0 0 0
SURF 32
  TYPE STANDARD
  CURV 0.0221577186412887 0 0 0 0
  HIDE 0 0 0 0 0 0 0 0 0 0
  MIRR 2 0
  DISZ  6.42
  GLAS  ___BLANK 1 0 2.00100 29.1 0 0 0 0 0 0
  DIAM  18.32 1 0 0 1 ""
  POPS 0 0 0 0 0 0 0 0 1 1 1 1 0 0 0 0
SURF 33
  TYPE STANDARD
  CURV -0.00591187755319212 0 0 0 0
  HIDE 0 0 0 0 0 0 0 0 0 0
  MIRR 2 0
  DISZ  19.57
  DIAM  18.32 1 0 0 1 ""
  POPS 0 0 0 0 0 0 0 0 1 1 1 1 0 0 0 0
SURF 34
  TYPE STANDARD
  CURV 0.0 0 0 0 0 ""
  HIDE 0 0 0 0 0 0 0 0 0 0
  MIRR 2 0
  DISZ 0
  DIAM 21.64 1 0 0 1 ""
  POPS 0 0 0 0 0 0 0 0 1 1 1 1 0 0 0 0
TOL TOFF   0   0              0              0   0 0 0 0
MNUM 3 1
SDIA   14   1 13.174 0 0 0 1 1 1 0 0
SDIA   14   2 14.5345 0 0 0 1 1 1 0 0
SDIA   14   3 16.2535 0 0 0 1 1 1 0 0
THIC   5   1 3.86 0 0 0 1 1 1 0 0
THIC   5   2 16.61 0 0 0 1 1 1 0 0
THIC   5   3 29.64 0 0 0 1 1 1 0 0
THIC   13   1 14.92 0 0 0 1 1 1 0 0
THIC   13   2 8.44 0 0 0 1 1 1 0 0
THIC   13   3 2.27 0 0 0 1 1 1 0 0
THIC   21   1 5.66 0 0 0 1 1 1 0 0
THIC   21   2 2.61 0 0 0 1 1 1 0 0
THIC   21   3 0.95 0 0 0 1 1 1 0 0
THIC   33   1 19.57 0 0 0 1 1 1 0 0
THIC   33   2 25.90 0 0 0 1 1 1 0 0
THIC   33   3 33.38 0 0 0 1 1 1 0 0
