VERS 161019 507 33785
MODE SEQ
NAME Nikon AF-S DX Zoom-Nikkor 12-24mm f/4G IF-ED (US 6,940,655 Example 1)
NOTE 0 Prepared and converted by Bill Claff. See:
NOTE 4
NOTE 0 https://www.PhotonsToPhotos.net/Lenses/OpticalBench/OpticalBench.htm#/Data/US006940655_Example01_Tale68.txt
PFIL 0 0 0
LANG 0
UNIT MM X W X CM MR CPMM
FLOA
ENVD 20 1 0
GFAC 0 0
RAIM 0 2 1 1 0 1 0 0 0
SDMA 0 1 0
FTYP 3 0 3 3 0 0 0
ROPD 2
HYPR 0
PICB 1
XFLN 0 0 0 0 0 0 0 0 0 0 0 0
YFLN 0 10.017 14.31 0 0 0 0 0 0 0 0 0 0
FWGN 1 1 1 1 1 1 1 1 1 1 1 1
VDXN 0 0 0 0 0 0 0 0 0 0 0 0
VDYN 0 0 0 0 0 0 0 0 0 0 0 0
VCXN 0 0 0 0 0 0 0 0 0 0 0 0
VCYN 0 0 0 0 0 0 0 0 0 0 0 0
VANN 0 0 0 0 0 0 0 0 0 0 0 0
WAVM 1 0.4861327 1
WAVM 2 0.5875618 1
WAVM 3 0.6562725 1
WAVM 4 0.550 1
WAVM 5 0.550 1
WAVM 6 0.550 1
WAVM 7 0.550 1
WAVM 8 0.550 1
WAVM 9 0.550 1
WAVM 10 0.550 1
WAVM 11 0.550 1
WAVM 12 0.550 1
WAVM 13 0.550 1
WAVM 14 0.550 1
WAVM 15 0.550 1
WAVM 16 0.550 1
WAVM 17 0.550 1
WAVM 18 0.550 1
WAVM 19 0.550 1
WAVM 20 0.550 1
WAVM 21 0.550 1
WAVM 22 0.550 1
WAVM 23 0.550 1
WAVM 24 0.550 1
PWAV 2
POLS 1 0 1 0 0 1 0
GSTD 0 100 100 100 100 100 100 0 1 1 0 0 1 1 1 1 1 1
NSCD 100 500 0 1.0E-3 5 1.0E-6 0 0 0 0 0 0 1000000 0 2
SURF 0
  TYPE STANDARD
  CURV 0.0 0 0 0 0 ""
  HIDE 0 0 0 0 0 0 0 0 0 0
  MIRR 2 0
  DISZ INFINITY
  DIAM 0 1 0 0 1 ""
  POPS 0 0 0 0 0 0 0 0 1 1 1 1 0 0 0 0
SURF 1
  TYPE XOSPHERE
  CURV 0.0128053762091476 0 0 0 0
  HIDE 0 0 0 0 0 0 0 0 0 0
  MIRR 2 0
  XDAT 1 12 0 0 1 0 0 ""
  XDAT 2 1 0 0 1 0 0 ""
  XDAT 3 0 0 0 1 0 0 ""
  XDAT 4 0 0 0 1 0 0 ""
  XDAT 5 0.00000E+00 0 0 1 0 0 ""
  XDAT 6 7.03860E-07 0 0 1 0 0 ""
  XDAT 7 0 0 0 1 0 0 ""
  XDAT 8 1.23420E-10 0 0 1 0 0 ""
  XDAT 9 0 0 0 1 0 0 ""
  XDAT 10 2.35070E-13 0 0 1 0 0 ""
  XDAT 11 0 0 0 1 0 0 ""
  XDAT 12 4.78750E-16 0 0 1 0 0 ""
  XDAT 13 0 0 0 1 0 0 ""
  XDAT 14 1.36620E-19 0 0 1 0 0 ""
  DISZ  2
  CONI  -14.9624
  GLAS  ___BLANK 1 0 1.744429 49.55 0 0 0 0 0 0
  DIAM  28.07 1 0 0 1 ""
  POPS 0 0 0 0 0 0 0 0 1 1 1 1 0 0 0 0
SURF 2
  TYPE XOSPHERE
  CURV 0.0509512600246604 0 0 0 0
  HIDE 0 0 0 0 0 0 0 0 0 0
  MIRR 2 0
  XDAT 1 14 0 0 1 0 0 ""
  XDAT 2 1 0 0 1 0 0 ""
  XDAT 3 0 0 0 1 0 0 ""
  XDAT 4 0 0 0 1 0 0 ""
  XDAT 5 2.69680E-05 0 0 1 0 0 ""
  XDAT 6 -4.77700E-06 0 0 1 0 0 ""
  XDAT 7 0 0 0 1 0 0 ""
  XDAT 8 -3.12450E-09 0 0 1 0 0 ""
  XDAT 9 0 0 0 1 0 0 ""
  XDAT 10 1.23680E-12 0 0 1 0 0 ""
  XDAT 11 0 0 0 1 0 0 ""
  XDAT 12 3.39710E-15 0 0 1 0 0 ""
  XDAT 13 0 0 0 1 0 0 ""
  XDAT 14 1.60570E-17 0 0 1 0 0 ""
  XDAT 15 0 0 0 1 0 0 ""
  XDAT 16 4.11710E-21 0 0 1 0 0 ""
  DISZ  16.65
  CONI  -1.6055
  DIAM  23.25 1 0 0 1 ""
  POPS 0 0 0 0 0 0 0 0 1 1 1 1 0 0 0 0
SURF 3
  TYPE STANDARD
  CURV 0.00412162928005441 0 0 0 0
  HIDE 0 0 0 0 0 0 0 0 0 0
  MIRR 2 0
  DISZ  5
  GLAS  ___BLANK 1 0 1.581440 40.75 0 0 0 0 0 0
  DIAM  16.19 1 0 0 1 ""
  POPS 0 0 0 0 0 0 0 0 1 1 1 1 0 0 0 0
SURF 4
  TYPE STANDARD
  CURV -0.0151762800812842 0 0 0 0
  HIDE 0 0 0 0 0 0 0 0 0 0
  MIRR 2 0
  DISZ  1.5
  GLAS  ___BLANK 1 0 1.772500 49.61 0 0 0 0 0 0
  DIAM  16.19 1 0 0 1 ""
  POPS 0 0 0 0 0 0 0 0 1 1 1 1 0 0 0 0
SURF 5
  TYPE STANDARD
  CURV 0.062111801242236 0 0 0 0
  HIDE 0 0 0 0 0 0 0 0 0 0
  MIRR 2 0
  DISZ  0.1
  GLAS  ___BLANK 1 0 1.553890 38.09 0 0 0 0 0 0
  DIAM  12.8 1 0 0 1 ""
  POPS 0 0 0 0 0 0 0 0 1 1 1 1 0 0 0 0
SURF 6
  TYPE XOSPHERE
  CURV 0.0616294835449279 0 0 0 0
  HIDE 0 0 0 0 0 0 0 0 0 0
  MIRR 2 0
  XDAT 1 14 0 0 1 0 0 ""
  XDAT 2 1 0 0 1 0 0 ""
  XDAT 3 0 0 0 1 0 0 ""
  XDAT 4 0 0 0 1 0 0 ""
  XDAT 5 2.55820E-05 0 0 1 0 0 ""
  XDAT 6 3.67940E-05 0 0 1 0 0 ""
  XDAT 7 0 0 0 1 0 0 ""
  XDAT 8 -6.97010E-08 0 0 1 0 0 ""
  XDAT 9 0 0 0 1 0 0 ""
  XDAT 10 7.16180E-10 0 0 1 0 0 ""
  XDAT 11 0 0 0 1 0 0 ""
  XDAT 12 -3.18200E-12 0 0 1 0 0 ""
  XDAT 13 0 0 0 1 0 0 ""
  XDAT 14 1.90110E-17 0 0 1 0 0 ""
  XDAT 15 0 0 0 1 0 0 ""
  XDAT 16 3.20120E-18 0 0 1 0 0 ""
  DISZ  4.8
  CONI  -0.6586
  DIAM  12.8 1 0 0 1 ""
  POPS 0 0 0 0 0 0 0 0 1 1 1 1 0 0 0 0
SURF 7
  TYPE STANDARD
  CURV 0.0428645523011835 0 0 0 0
  HIDE 0 0 0 0 0 0 0 0 0 0
  MIRR 2 0
  DISZ  4
  GLAS  ___BLANK 1 0 1.755200 27.51 0 0 0 0 0 0
  DIAM  12.195 1 0 0 1 ""
  POPS 0 0 0 0 0 0 0 0 1 1 1 1 0 0 0 0
SURF 8
  TYPE STANDARD
  CURV 0.0107506536397413 0 0 0 0
  HIDE 0 0 0 0 0 0 0 0 0 0
  MIRR 2 0
  DISZ  25.95663
  DIAM  12.195 1 0 0 1 ""
  POPS 0 0 0 0 0 0 0 0 1 1 1 1 0 0 0 0
SURF 9
  TYPE STANDARD
  CURV 0.0325938866906123 0 0 0 0
  HIDE 0 0 0 0 0 0 0 0 0 0
  MIRR 2 0
  DISZ  0.9
  GLAS  ___BLANK 1 0 1.741000 52.67 0 0 0 0 0 0
  DIAM  7.555 1 0 0 1 ""
  POPS 0 0 0 0 0 0 0 0 1 1 1 1 0 0 0 0
SURF 10
  TYPE STANDARD
  CURV 0.0592041774467606 0 0 0 0
  HIDE 0 0 0 0 0 0 0 0 0 0
  MIRR 2 0
  DISZ  3
  GLAS  ___BLANK 1 0 1.548140 45.79 0 0 0 0 0 0
  DIAM  7.555 1 0 0 1 ""
  POPS 0 0 0 0 0 0 0 0 1 1 1 1 0 0 0 0
SURF 11
  TYPE STANDARD
  CURV -0.0120545540899897 0 0 0 0
  HIDE 0 0 0 0 0 0 0 0 0 0
  MIRR 2 0
  DISZ  3.43377
  DIAM  6.99 1 0 0 1 ""
  POPS 0 0 0 0 0 0 0 0 1 1 1 1 0 0 0 0
SURF 12
  STOP
  TYPE STANDARD
  CURV 0 0 0 0 0
  HIDE 0 0 0 0 0 0 0 0 0 0
  MIRR 2 0
  DISZ  1
  DIAM  5.287 1 0 0 1 ""
  POPS 0 0 0 0 0 0 0 0 1 1 1 1 0 0 0 0
SURF 13
  TYPE STANDARD
  CURV -0.000206366607967749 0 0 0 0
  HIDE 0 0 0 0 0 0 0 0 0 0
  MIRR 2 0
  DISZ  9
  GLAS  ___BLANK 1 0 1.497820 82.52 0 0 0 0 0 0
  DIAM  7.26 1 0 0 1 ""
  POPS 0 0 0 0 0 0 0 0 1 1 1 1 0 0 0 0
SURF 14
  TYPE STANDARD
  CURV -0.0836134383518119 0 0 0 0
  HIDE 0 0 0 0 0 0 0 0 0 0
  MIRR 2 0
  DISZ  1.35
  GLAS  ___BLANK 1 0 1.804000 46.58 0 0 0 0 0 0
  DIAM  7.83 1 0 0 1 ""
  POPS 0 0 0 0 0 0 0 0 1 1 1 1 0 0 0 0
SURF 15
  TYPE STANDARD
  CURV -0.0400777508366231 0 0 0 0
  HIDE 0 0 0 0 0 0 0 0 0 0
  MIRR 2 0
  DISZ  6.95
  DIAM  7.83 1 0 0 1 ""
  POPS 0 0 0 0 0 0 0 0 1 1 1 1 0 0 0 0
SURF 16
  TYPE STANDARD
  CURV 0.0012904914268783 0 0 0 0
  HIDE 0 0 0 0 0 0 0 0 0 0
  MIRR 2 0
  DISZ  0.9
  GLAS  ___BLANK 1 0 1.804400 39.59 0 0 0 0 0 0
  DIAM  8.905 1 0 0 1 ""
  POPS 0 0 0 0 0 0 0 0 1 1 1 1 0 0 0 0
SURF 17
  TYPE STANDARD
  CURV 0.0497804681355223 0 0 0 0
  HIDE 0 0 0 0 0 0 0 0 0 0
  MIRR 2 0
  DISZ  6.5
  GLAS  ___BLANK 1 0 1.497820 82.52 0 0 0 0 0 0
  DIAM  8.905 1 0 0 1 ""
  POPS 0 0 0 0 0 0 0 0 1 1 1 1 0 0 0 0
SURF 18
  TYPE STANDARD
  CURV -0.0653005785631261 0 0 0 0
  HIDE 0 0 0 0 0 0 0 0 0 0
  MIRR 2 0
  DISZ  1
  DIAM  8.905 1 0 0 1 ""
  POPS 0 0 0 0 0 0 0 0 1 1 1 1 0 0 0 0
SURF 19
  TYPE XOSPHERE
  CURV -0.0504301693445087 0 0 0 0
  HIDE 0 0 0 0 0 0 0 0 0 0
  MIRR 2 0
  XDAT 1 10 0 0 1 0 0 ""
  XDAT 2 1 0 0 1 0 0 ""
  XDAT 3 0 0 0 1 0 0 ""
  XDAT 4 0 0 0 1 0 0 ""
  XDAT 5 3.79350E-06 0 0 1 0 0 ""
  XDAT 6 -3.87640E-06 0 0 1 0 0 ""
  XDAT 7 0 0 0 1 0 0 ""
  XDAT 8 -6.02020E-08 0 0 1 0 0 ""
  XDAT 9 0 0 0 1 0 0 ""
  XDAT 10 -9.02410E-10 0 0 1 0 0 ""
  XDAT 11 0 0 0 1 0 0 ""
  XDAT 12 -1.90620E-12 0 0 1 0 0 ""
  DISZ  2
  CONI  0.4732
  GLAS  ___BLANK 1 0 1.606020 57.44 0 0 0 0 0 0
  DIAM  9.925 1 0 0 1 ""
  POPS 0 0 0 0 0 0 0 0 1 1 1 1 0 0 0 0
SURF 20
  TYPE XOSPHERE
  CURV -0.0419707799430037 0 0 0 0
  HIDE 0 0 0 0 0 0 0 0 0 0
  MIRR 2 0
  XDAT 1 10 0 0 1 0 0 ""
  XDAT 2 1 0 0 1 0 0 ""
  XDAT 3 0 0 0 1 0 0 ""
  XDAT 4 0 0 0 1 0 0 ""
  XDAT 5 -8.11580E-07 0 0 1 0 0 ""
  XDAT 6 -1.91950E-06 0 0 1 0 0 ""
  XDAT 7 0 0 0 1 0 0 ""
  XDAT 8 -7.62310E-08 0 0 1 0 0 ""
  XDAT 9 0 0 0 1 0 0 ""
  XDAT 10 -3.70540E-10 0 0 1 0 0 ""
  XDAT 11 0 0 0 1 0 0 ""
  XDAT 12 -4.03920E-12 0 0 1 0 0 ""
  DISZ  37.99664
  CONI  -0.3597
  DIAM  9.925 1 0 0 1 ""
  POPS 0 0 0 0 0 0 0 0 1 1 1 1 0 0 0 0
SURF 21
  TYPE STANDARD
  CURV 0.0 0 0 0 0 ""
  HIDE 0 0 0 0 0 0 0 0 0 0
  MIRR 2 0
  DISZ 0
  DIAM 14.31 1 0 0 1 ""
  POPS 0 0 0 0 0 0 0 0 1 1 1 1 0 0 0 0
TOL TOFF   0   0              0              0   0 0 0 0
MNUM 9 1
SDIA   12   1 5.287 0 0 0 1 1 1 0 0
SDIA   12   2 6.118 0 0 0 1 1 1 0 0
SDIA   12   3 6.867 0 0 0 1 1 1 0 0
SDIA   12   4 5.287 0 0 0 1 1 1 0 0
SDIA   12   5 6.118 0 0 0 1 1 1 0 0
SDIA   12   6 6.867 0 0 0 1 1 1 0 0
SDIA   12   7 5.287 0 0 0 1 1 1 0 0
SDIA   12   8 6.118 0 0 0 1 1 1 0 0
SDIA   12   9 6.867 0 0 0 1 1 1 0 0
THIC   0   1 1.00E+10 0 0 0 1 1 1 0 0
THIC   0   2 1.00E+10 0 0 0 1 1 1 0 0
THIC   0   3 1.00E+10 0 0 0 1 1 1 0 0
THIC   0   4 459.2617 0 0 0 1 1 1 0 0
THIC   0   5 689.4384 0 0 0 1 1 1 0 0
THIC   0   6 902.4793 0 0 0 1 1 1 0 0
THIC   0   7 139.293 0 0 0 1 1 1 0 0
THIC   0   8 134.8576 0 0 0 1 1 1 0 0
THIC   0   9 140.6163 0 0 0 1 1 1 0 0
THIC   8   1 25.95663 0 0 0 1 1 1 0 0
THIC   8   2 9.88203 0 0 0 1 1 1 0 0
THIC   8   3 1.99178 0 0 0 1 1 1 0 0
THIC   8   4 26.70744 0 0 0 1 1 1 0 0
THIC   8   5 10.35626 0 0 0 1 1 1 0 0
THIC   8   6 2.37102 0 0 0 1 1 1 0 0
THIC   8   7 28.12092 0 0 0 1 1 1 0 0
THIC   8   8 12.01643 0 0 0 1 1 1 0 0
THIC   8   9 4.12618 0 0 0 1 1 1 0 0
THIC   11   1 3.43377 0 0 0 1 1 1 0 0
THIC   11   2 3.43377 0 0 0 1 1 1 0 0
THIC   11   3 3.43377 0 0 0 1 1 1 0 0
THIC   11   4 2.68296 0 0 0 1 1 1 0 0
THIC   11   5 2.95954 0 0 0 1 1 1 0 0
THIC   11   6 3.05453 0 0 0 1 1 1 0 0
THIC   11   7 1.26948 0 0 0 1 1 1 0 0
THIC   11   8 1.29937 0 0 0 1 1 1 0 0
THIC   11   9 1.29937 0 0 0 1 1 1 0 0
THIC   20   1 37.99664 0 0 0 1 1 1 0 0
THIC   20   2 48.43207 0 0 0 1 1 1 0 0
THIC   20   3 58.13521 0 0 0 1 1 1 0 0
THIC   20   4 38.00021 0 0 0 1 1 1 0 0
THIC   20   5 48.43563 0 0 0 1 1 1 0 0
THIC   20   6 58.13876 0 0 0 1 1 1 0 0
THIC   20   7 38.02654 0 0 0 1 1 1 0 0
THIC   20   8 48.43207 0 0 0 1 1 1 0 0
THIC   20   9 58.13521 0 0 0 1 1 1 0 0
